29
Properties=species:S:1:pos:R:3 energy=-25450.6077771194 pbc="F F F"
C        4.99881300      -0.86853800       0.00001200
N        3.90744000      -1.64213700      -0.00001400
C        2.82209800      -0.72709300      -0.00001300
C        3.28738700       0.61341700       0.00001200
N        4.68000100       0.51522100       0.00002900
H        5.32035100       1.31098200       0.00003500
N        2.56223100       1.76838200       0.00002000
C        1.22230900       1.53964800       0.00000100
N        0.66349600       0.25881500      -0.00002900
C        1.40704800      -0.96388500      -0.00002500
O        0.80217100      -2.09024300      -0.00003800
N        0.36456100       2.59654800       0.00000500
H        6.02512600      -1.21696000       0.00001900
H       -0.39538000       0.15449800      -0.00002300
H        0.79167700       3.52357900       0.00000700
H       -0.67341200       2.49288500      -0.00001600
C       -4.16166100      -1.47378800       0.00001400
C       -4.93205300      -0.34242000       0.00001500
N       -4.34225100       0.90586100       0.00000900
C       -2.90834200       1.08047600      -0.00000500
O       -2.45108200       2.26249700      -0.00004100
N       -2.14313600      -0.06712000       0.00001700
C       -2.71412000      -1.31196400       0.00002100
N       -1.88833900      -2.37544100       0.00002200
H       -4.89752200       1.76648700       0.00000900
H       -4.61503400      -2.46196600      -0.00001700
H       -6.02121500      -0.37267900       0.00000300
H       -0.82181700      -2.24987100       0.00000200
H       -2.27837200      -3.32100200       0.00001200
